# File generated by Flopy version 3.3.2 on 02/03/2021 at 22:56:05.
BEGIN options
END options

BEGIN packages
  DIS6  'Ejercicio 2.dis'  dis
  IC6  'Ejercicio 2.ic'  ic
  NPF6  'Ejercicio 2.npf'  npf
  CHD6  'Ejercicio 2.chd'  chd_0
  OC6  'Ejercicio 2.oc'  oc
END packages

