# File generated by Flopy version 3.3.2 on 02/03/2021 at 22:56:06.
BEGIN options
  BUDGET  FILEOUT  'Ejercicio 2.cbb'
  HEAD  FILEOUT  'Ejercicio 2.hds'
END options

BEGIN period  1
  SAVE  HEAD  ALL
  SAVE  BUDGET  ALL
  PRINT  HEAD  LAST
END period  1

