# File generated by Flopy version 3.3.2 on 02/05/2021 at 04:09:27.
BEGIN options
END options

BEGIN packages
  DIS6  ejercicio1.dis  dis
  IC6  ejercicio1.ic  ic
  NPF6  ejercicio1.npf  npf
  CHD6  ejercicio1.chd  chd_0
  DRN6  ejercicio1.drn  drn_0
  OC6  ejercicio1.oc  oc
END packages

