# File generated by Flopy version 3.3.2 on 02/04/2021 at 18:48:12.
BEGIN options
END options

BEGIN packages
  DIS6  modelo_1.dis  dis
  IC6  modelo_1.ic  ic
  NPF6  modelo_1.npf  npf
  CHD6  modelo_1.chd  chd_0
  OC6  modelo_1.oc  oc
END packages

