# File generated by Flopy version 3.3.2 on 02/04/2021 at 18:48:13.
BEGIN options
  BUDGET  FILEOUT  modelo_1.cbb
  HEAD  FILEOUT  modelo_1.hds
END options

BEGIN period  1
  SAVE  HEAD  ALL
  SAVE  BUDGET  ALL
  PRINT  HEAD  LAST
END period  1

